<?xml version="1.0" encoding="UTF-8"?>

<!-- generated on 2025-11-01 03:19:11 by Eclipse SUMO polyconvert Version 1.18.0
<configuration xmlns:xsi="http://www.w3.org/2001/XMLSchema-instance" xsi:noNamespaceSchemaLocation="http://sumo.dlr.de/xsd/polyconvertConfiguration.xsd">

    <input>
        <net-file value="aljubail_saudi.net.xml"/>
        <osm-files value="aljubail_saudi.osm"/>
        <type-file value="/usr/local/share/sumo/data/typemap/osmPolyconvert.typ.xml"/>
    </input>

    <output>
        <output-file value="aljubail_saudi.poly.xml"/>
    </output>

</configuration>
-->

<additional xmlns:xsi="http://www.w3.org/2001/XMLSchema-instance" xsi:noNamespaceSchemaLocation="http://sumo.dlr.de/xsd/additional_file.xsd">
    <location netOffset="-954636.68,-2987114.01" convBoundary="-0.00,-0.00,13444.49,14760.11" origBoundary="49.580697,26.927341,49.711666,27.063180" projParameter="+proj=utm +zone=38 +datum=WGS84"/>

    <poi id="1375017268" type="military" color="153,153,92" layer="3.00" x="5099.83" y="11535.10"/>
</additional>
