<?xml version="1.0" encoding="UTF-8"?>

<!-- generated on 2025-11-01 03:02:56.835433 by randomTrips.py UNKNOWN
<configuration>
    <net-file value="aljubail_saudi.net.xml"/>
    <route-file value="aljubail_saudi.rou.xml"/>
    <trip-attributes value="departLane=&quot;best&quot; departSpeed=&quot;max&quot;"/>
    <vehicle-class value="passenger"/>
    <fringe-factor value="5"/>
    <min-distance value="200.0"/>
    <validate value="True"/>
    <verbose value="True"/>
    <end value="300.0"/>
    <period value="2.0"/>
</configuration>
-->

<!-- generated on 2025-11-01 03:02:56 by Eclipse SUMO duarouter Version 1.18.0
<configuration xmlns:xsi="http://www.w3.org/2001/XMLSchema-instance" xsi:noNamespaceSchemaLocation="http://sumo.dlr.de/xsd/duarouterConfiguration.xsd">

    <input>
        <net-file value="aljubail_saudi.net.xml"/>
        <route-files value="trips.trips.xml"/>
    </input>

    <output>
        <output-file value="aljubail_saudi.rou.xml"/>
        <alternatives-output value="NUL"/>
    </output>

    <time>
        <begin value="0"/>
        <end value="300.0"/>
    </time>

    <report>
        <verbose value="true"/>
        <ignore-errors value="true"/>
        <no-step-log value="true"/>
    </report>

</configuration>
-->

<routes xmlns:xsi="http://www.w3.org/2001/XMLSchema-instance" xsi:noNamespaceSchemaLocation="http://sumo.dlr.de/xsd/routes_file.xsd">
    <vType id="passenger" vClass="passenger"/>
    <vehicle id="0" type="passenger" depart="0.00" departLane="best" departSpeed="max">
        <route edges="165300985#1 165300985#2 165300985#3 165300988#5 165303756#0 165303756#1 165303756#2 164929309#7 164929309#8 164929309#9 164929309#10 164929309#11 164929309#12 229248578#10 171774367#1 171774367#2 171774367#3 171774367#5 171774367#6 171774367#7 171774367#8 171774367#9 171774367#10 171774367#11 132976494#20 132976494#21 132971049#4 132971049#4-AddedOffRampEdge 132971049#5 132970988#15 132970988#16-AddedOnRampEdge 132970988#16 665671743#5 665671751#0 665671751#0-AddedOffRampEdge 665671751#1 665671765 123243892#0 123243892#1 123243892#2-AddedOnRampEdge 123243892#2 123243892#4 123243892#4-AddedOffRampEdge 123243892#5 257413447#0 257413447#1 -225030421#6 -225030421#5 -225030421#4 -225030421#3 -225030421#2 1108473995#0 1108473995#1 1108473995#2 1108473995#3 1108473995#4 -1332820042#6 -1332820042#5 -1332820042#4"/>
    </vehicle>
    <vehicle id="1" type="passenger" depart="2.00" departLane="best" departSpeed="max">
        <route edges="-225030260 257413506#0 257413491 225030248#5-AddedOnRampEdge 225030248#5 225030248#7 225030248#9 225030248#11 225030248#11-AddedOffRampEdge 257413467 1136880674-AddedOnRampEdge 1136880674 225030378#0 225030378#1 225030378#2 225030378#5 225030378#6-AddedOnRampEdge 225030378#6 164926629#0 164926629#1 164926629#2 164926629#3 164926629#4 164926629#5 164926629#6 164926629#7 164926629#8 164926629#9 164926629#10 164926629#11 171196237#7 171196237#8 171196237#9 170232125#0 170232125#1 -170232119 -170232129#0 -170232120#0"/>
    </vehicle>
    <vehicle id="2" type="passenger" depart="4.00" departLane="best" departSpeed="max">
        <route edges="171196237#14 338516783#0 338516783#1 338516783#2 -171241930#1 168293175#5 168293175#6 168293175#7 168293175#8 168293175#9 168293175#10 168293175#11 168456074"/>
    </vehicle>
    <vehicle id="3" type="passenger" depart="6.00" departLane="best" departSpeed="max">
        <route edges="266653534#1 266653534#2-AddedOnRampEdge 266653534#2 266653534#3 266653534#4 266653534#5 266653534#6 266653534#7 266653534#8 266653534#9 266653534#10 266653534#11 266653534#12 266653534#13 266653534#14 266653534#15 266653534#16 266653534#17 266653534#18 266653534#19 266653534#20 266653534#20-AddedOffRampEdge 266653534#21 266653533#0 266653533#1-AddedOnRampEdge 266653533#1 266653533#1-AddedOffRampEdge 266653533#2 266653533#4 266653533#5-AddedOnRampEdge 266653533#5 266653533#6 316009896#4 164929309#0 164929309#2 164929309#3 164929309#4 164929309#5 164929309#7 164929309#8 164929309#9 164930789#0 164930789#1 164930789#2 -164930829#2 -164930829#1"/>
    </vehicle>
    <vehicle id="4" type="passenger" depart="8.00" departLane="best" departSpeed="max">
        <route edges="129213890#1 171779548#0 -171779549#3 -171779530#1 -171779530#0 229247629#4 132970988#13 132970988#14 132970988#15 132970988#16-AddedOnRampEdge 132970988#16 665671743#5 665671751#0 665671751#0-AddedOffRampEdge 665671751#1 665671765 123243892#0 123243892#1 123243892#2-AddedOnRampEdge 123243892#2 123243892#4 123243892#4-AddedOffRampEdge 123243892#5 257413447#0 257413447#1 -225030421#6 -225030421#5 -225030421#4 -1332820049#1"/>
    </vehicle>
    <vehicle id="5" type="passenger" depart="10.00" departLane="best" departSpeed="max">
        <route edges="-170203320 -170203630 170203634 -170202820 -164928138#18 316009896#0 316009896#1 316009896#2 132976495#10 132976495#10-AddedOffRampEdge 132976495#11 132976495#13 132976495#14-AddedOnRampEdge 132976495#14 132976495#14-AddedOffRampEdge 132976495#15 132970988#5 132970988#6 132970988#7 132970988#8-AddedOnRampEdge 132970988#8 132970988#8-AddedOffRampEdge 132970988#9 229248578#21 229248578#22 229248578#23 229248578#24 229248578#25 123243887#0 123243887#1 123243887#2-AddedOnRampEdge 123243887#2 123243887#3 123243887#4 123243887#5 123243887#7 123243887#8 123243887#9 123243887#10 123243887#11 123243887#12 123243887#12-AddedOffRampEdge 123243887#13 257413497 225030378#6-AddedOnRampEdge 225030378#6 164926629#0 164926629#1 164926629#2 164926629#3 164926629#4 164926629#5 164926629#6"/>
    </vehicle>
    <vehicle id="6" type="passenger" depart="12.00" departLane="best" departSpeed="max">
        <route edges="-1332820045#1 1332820046 1332820045#2 1108473987#1 1108473987#2 1108473987#3 1108473987#5 1332820067 1332820098#0 1332820098#1 1332820099 1332820069#5 1332821002 1136880673#2 1136880673#2-AddedOffRampEdge 1136880673#3 1136880673#6 1136880674-AddedOnRampEdge 1136880674 225030378#0 225030378#1 225030378#2 225030378#5 225030378#6-AddedOnRampEdge 225030378#6 164926629#0 164926629#1 164926629#2 164926629#3 164926629#4 164926629#5 164926629#6 164926629#7 164926629#8 164926629#9 164926629#10 164926629#11 171196237#7 171196237#8 171196237#9 171196237#10 1136913755 168293175#1 168293175#2 168293175#5 -168577655#4 -168577655#3 -168577655#2 -168577655#1 -168577655#0 168446405#4 168572356#0 168443512#2 -168572354#1"/>
    </vehicle>
    <vehicle id="7" type="passenger" depart="14.00" departLane="best" departSpeed="max">
        <route edges="165304346#0 165304346#1 -164930542#14 601497899 164930829#10 164930829#11"/>
    </vehicle>
    <vehicle id="8" type="passenger" depart="16.00" departLane="best" departSpeed="max">
        <route edges="-170212945#0 164928138#3 132976494#2 132976494#4 164929804#0 164929804#1 266653533#5-AddedOnRampEdge 266653533#5 266653533#6 266653533#8 266653533#9 266653533#10 266653533#11 266653533#12 129212165#7 129212165#8 129212165#1 129212165#2 129212165#3 132976490#0 132976490#1 132976490#2 132976490#3 132976490#6 257413504#0 257413504#1 165254177#0 165254177#1"/>
    </vehicle>
    <vehicle id="9" type="passenger" depart="18.00" departLane="best" departSpeed="max">
        <route edges="225030378#1 225030378#2 123243889#1 123243889#2-AddedOnRampEdge 123243889#2 123243889#3 123243889#4 123243879#0 123243879#1 123243879#2-AddedOnRampEdge 123243879#2 123243879#3 123243879#4 123243879#5 123243879#6 665671743#3 132970986#0 132970986#1 132970986#2-AddedOnRampEdge 132970986#2 132970986#3 129213890#0 129213890#1 129213890#2 129213890#3 129213890#5 129213890#6 129213890#7 129213890#8 129213890#10 129213890#11 129209464#8 132970975#0 132970975#1 132970975#2 229248576#0 229248576#1 229248576#2 -165254862#1 -165254862#0 -165254187#3 -1058512944"/>
    </vehicle>
    <vehicle id="10" type="passenger" depart="20.00" departLane="best" departSpeed="max">
        <route edges="225030324#8 225030324#9 225030324#10 225030324#11 -225030423#3 -225030396#1 -225030396#0 225030414#1 -225030260 257413506#0 257413491 225030248#5-AddedOnRampEdge 225030248#5 225030248#7 225030248#9 225030248#11 225030248#11-AddedOffRampEdge 225030248#12 225030248#14 665671756#0 665671756#0-AddedOffRampEdge 665671748 665671752#2-AddedOnRampEdge 665671752#2 665671743#7 665671743#8 665671743#1 665671743#2 665671743#3 132970986#0 132970986#1 132970986#2-AddedOnRampEdge 132970986#2 132970986#3 129213890#0 129213890#1 129213890#2 129213890#3 129213890#5 129213890#6 129213890#7 129213890#8 164929533#0 164929533#1 316009894#0 316009894#1 316009894#2 316009894#3 316009894#4 316009894#5 316009894#6 316009894#7 316009894#8 316009894#10 316009894#12 316009894#14 316009894#15 316009894#16 164928138#18 170202820"/>
    </vehicle>
    <vehicle id="12" type="passenger" depart="24.00" departLane="best" departSpeed="max">
        <route edges="665671742 665671743#1 665671743#2 665671743#3 132970986#0 132970986#1 132970986#2-AddedOnRampEdge 132970986#2 132970986#3 132970986#4 132970986#5 132970986#5-AddedOffRampEdge 132970986#6 132970986#7-AddedOnRampEdge 132970986#7 132970986#8 132970986#10 132970986#11-AddedOnRampEdge 132970986#11 132970986#12-AddedOnRampEdge 132970986#12 132970986#12-AddedOffRampEdge 132970986#13 266653533#0 266653533#1-AddedOnRampEdge 266653533#1 266653533#1-AddedOffRampEdge 164930078#0 164930078#1 132976492#19 132976492#20 132976492#21 164928138#5 170192939 -361926669#3"/>
    </vehicle>
    <vehicle id="13" type="passenger" depart="26.00" departLane="best" departSpeed="max">
        <route edges="-164930724#5 -164930724#4 -164930724#3 -164930724#2 -164930724#1 -164930724#0 164929309#7 164929309#8 164929309#9 164929309#10 164929309#11 164929309#12 229248578#10 171774367#1 171774367#2 171774367#3 171774367#5 171774367#6 171774367#7 171774367#8 171774367#9 171774367#10 171774367#11 132976494#20 132976494#21 132971049#4 132971049#4-AddedOffRampEdge 132971049#5 132970988#15 132970988#16-AddedOnRampEdge 132970988#16 665671743#5 665671743#6 665671743#7 665671743#8 665671743#1 132971000#0 132971000#0-AddedOffRampEdge 132971000#1 132971000#2 123243848 123243888#1 123243888#2-AddedOnRampEdge 123243888#2 123243888#3 225030378#5 225030378#6-AddedOnRampEdge 225030378#6 164926629#0 164926629#1 164926629#2 164926629#3 164926629#4 164926629#5 164926629#6 -164926660#20 165024779#2 165024779#3 -165025110"/>
    </vehicle>
    <vehicle id="14" type="passenger" depart="28.00" departLane="best" departSpeed="max">
        <route edges="229248578#29 338517271#0 338517271#1 338517281#1 -338517295#0 225030378#11 225030378#11-AddedOffRampEdge 225030378#12 171196237#23 171196237#24 171196237#25 171196237#26 171196237#28 171196237#29-AddedOnRampEdge 171196237#29 171196237#30 171196237#31 171196237#32 171196237#34 171196237#35 171196237#36 316009897#0 316009897#1 316009897#2 129213890#10 129213890#11 129209464#8 132970975#0 132970975#1 132970975#2 229248576#0 229248576#1 165254865#0"/>
    </vehicle>
    <vehicle id="15" type="passenger" depart="30.00" departLane="best" departSpeed="max">
        <route edges="225030349#0 225030349#1 225030288#0 1136913753#2 168443510#1 168443510#2 168443510#3 168443510#4 168443510#7 168443510#8 168443510#9 1136913756 171196237#14-AddedOnRampEdge 171196237#14 171196237#15 171196237#16 171196237#17 171196237#18 171196237#19 171196237#20 171196237#21 171196237#23 171196237#24 171196237#25 171196237#26 171196237#28"/>
    </vehicle>
    <vehicle id="16" type="passenger" depart="32.00" departLane="best" departSpeed="max">
        <route edges="164930542#4 -164930789#1 -164930789#0 164929309#10 164929309#11 164929309#12 229248578#10 229248578#11 229248578#12 229248578#13 229248578#15 229248578#16 229248578#17 229248578#18 229248578#19 229248578#21 229248578#22 229248578#23 229248578#24 229248578#25 229248578#26 229248578#28 229248578#29 229248578#30 229248578#31 338517283#0 817571383#0 817571384#0 817571384#1 817571384#2"/>
    </vehicle>
    <vehicle id="17" type="passenger" depart="34.00" departLane="best" departSpeed="max">
        <route edges="1058495295#2 1058495295#3 229248578#17 229248578#18 229248578#19 229248578#21 229248578#22 229248578#23 229248578#24 229248578#25 123243887#0 123243887#1 123243887#2-AddedOnRampEdge 123243887#2 123243887#3 123243887#4 123243887#5 123243887#7 123243887#8 123243887#9 123243887#10 123243887#11 123243887#12 123243887#12-AddedOffRampEdge 123243887#13 257413497 225030378#6-AddedOnRampEdge 225030378#6 164926629#0 164926629#1 164926629#2 164926629#3 164926629#4 164926629#5 165024779#0 165024783#0"/>
    </vehicle>
    <vehicle id="18" type="passenger" depart="36.00" departLane="best" departSpeed="max">
        <route edges="229247639 229247632#5 229248578#22 229248578#23 229248578#24 229248578#25 -318733657#1 -318733657#0 305610141#1 305610141#2 229247632#3 229247636 132970986#7-AddedOnRampEdge 132970986#7 132970986#8 171196237#28 171196237#29-AddedOnRampEdge 171196237#29 171196237#30 171196237#31 171196237#32 171196237#34 171196237#35 171196237#36 316009894#0 316009894#1 316009894#2 316009894#3 316009894#4 316009894#5 316009894#6 316009894#7 316009894#8 316009894#10 316009894#12 -165293923#2 361926872#1 -165293920 165293923#1"/>
    </vehicle>
    <vehicle id="19" type="passenger" depart="38.00" departLane="best" departSpeed="max">
        <route edges="257413450#0 257413450#1 257413450#2 257413450#3 257413450#4 257413450#6 257413450#7 257413450#8 132976495#3-AddedOnRampEdge 132976495#3 -165296752 -165188987 165188478#3 165188478#4"/>
    </vehicle>
    <vehicle id="20" type="passenger" depart="40.00" departLane="best" departSpeed="max">
        <route edges="170203631#2 -614436955#1 -170203630 170203634 -170202820 -164928138#18 316009896#0 316009896#1 316009896#2 132976495#10 132976495#10-AddedOffRampEdge 132976495#11 132976495#13 132976495#14-AddedOnRampEdge 132976495#14 132976495#14-AddedOffRampEdge 132976495#15 132970988#5 132970988#6 132970988#7 132970988#8-AddedOnRampEdge 132970988#8 132970988#8-AddedOffRampEdge 132970988#9 132970988#11 132970988#12 132970988#13 132970988#14 132970988#15 132970988#16-AddedOnRampEdge 132970988#16 665671743#5 665671751#0 665671751#0-AddedOffRampEdge 665671751#1 665671765 123243892#0 123243892#1 123243892#2-AddedOnRampEdge 123243892#2 123243892#4 123243892#4-AddedOffRampEdge 123243892#5 257413447#0 257413447#1 -225030421#6 -225030421#5 -225030421#4 -1332820049#1 1332820052#0 1332820052#1 1332820052#2 1332820047#4 1332820047#5 1332820056#0 1332820056#1 -1332820117#1 -1332820118 -1332820114#1 -1332820114#0"/>
    </vehicle>
    <vehicle id="21" type="passenger" depart="42.00" departLane="best" departSpeed="max">
        <route edges="-170232129#2 170232119 -170232125#1 -170232125#0 171196237#10 171196237#11 171196237#13 171196237#14-AddedOnRampEdge 171196237#14 171196237#15 171196237#16 171196237#17 171196237#18 171196237#19 171196237#20 171196237#21 123243883#1 123243887#2-AddedOnRampEdge 123243887#2 123243887#3 123243887#4 123243887#5 123243887#7 123243887#8 123243887#9 123243887#10 123243887#11 123243887#12 123243887#12-AddedOffRampEdge 123243887#13 123243887#16 123243887#17 123243887#18 123243887#19 123243887#20 123243887#21-AddedOnRampEdge 123243887#21 123243887#22 123243887#24 123243887#25 1136880676-AddedOnRampEdge 1136880676 1136880675#0 1136880675#1 123243892#0 123243892#1 123243892#2-AddedOnRampEdge 123243892#2 123243892#4 123243892#4-AddedOffRampEdge 123243892#5 123243892#7 123243892#8-AddedOnRampEdge 123243892#8 123243892#10 123243892#10-AddedOffRampEdge 123243892#11 257413502#3 257413502#4 257413502#5 257413457 225030414#0 225030396#0 225030396#1 225030423#3 225030324#1 -225030310 -225030262#0 -225030262#11 -225030262#10 -225030262#9 -225030262#8 -225030298 -225030324#7"/>
    </vehicle>
    <vehicle id="22" type="passenger" depart="44.00" departLane="best" departSpeed="max">
        <route edges="-164928138#15 -164928138#13 -164928138#12 170195323 170195249#1 164928138#15 164928138#16 316009896#0 316009896#1 316009896#2 132976495#10 132976495#10-AddedOffRampEdge 132976495#11 132976495#13 132976495#14-AddedOnRampEdge 132976495#14 132976495#14-AddedOffRampEdge 132976495#15 132970988#5 132970988#6 132970988#7 132970988#8-AddedOnRampEdge 132970988#8 132970988#8-AddedOffRampEdge 132970988#9 229248578#21 229248578#22 229248578#23 229248578#24 229248578#25 -318733657#1 -318733657#0 -170661489#4 170661488#0 -170661487#1"/>
    </vehicle>
    <vehicle id="23" type="passenger" depart="46.00" departLane="best" departSpeed="max">
        <route edges="-165024549#2 -165024549#1 -165024549#0 164926811#4 -164926958 -164926843#2 164926959 -165168129 164927391#0 164927391#1 164927391#2 225030378#8 -411801190#0 -258281669#5 -258281669#4 -258281669#3 -258281669#2 -258281669#1 665672386 132970986#2-AddedOnRampEdge 132970986#2 132970986#3 129213890#0 129213890#1 171779548#0 -171779549#3"/>
    </vehicle>
    <vehicle id="24" type="passenger" depart="48.00" departLane="best" departSpeed="max">
        <route edges="165299189 165253070#4 165253070#5 229247670#2 229247667 132976506#5 132976506#6 132976506#7 132976506#8 129212165#3 129212165#4 129212165#5 132976495#0 132976495#1 132976495#2 132976495#3-AddedOnRampEdge 132976495#3 132976495#4 132976495#5 132976495#6 132976495#7 132976495#8 132976495#10 132976495#10-AddedOffRampEdge 132976495#11 132976495#13 132976495#14-AddedOnRampEdge 132976495#14 132976495#14-AddedOffRampEdge 132976495#15 884069762#0 884069762#1 884069762#2-AddedOnRampEdge 884069762#2 884069762#3 884069762#4 884069762#5 884069762#6 884069762#7-AddedOnRampEdge 884069762#7 884069762#7-AddedOffRampEdge 225030272 225030265#1 170232121 171196237#16 171196237#17 1038738733"/>
    </vehicle>
    <vehicle id="26" type="passenger" depart="52.00" departLane="best" departSpeed="max">
        <route edges="-171779533#2 -171779533#1 -171779533#0 -171779535#3 -313715048#3 -313715048#2 -313715048#1 -313715048#0 132976492#6 132976492#7 132976492#9 526802985#0 526802985#1 526802985#2 526802983"/>
    </vehicle>
    <vehicle id="27" type="passenger" depart="54.00" departLane="best" departSpeed="max">
        <route edges="165303807#0 165303807#1 165303807#2 164930789#5 257413470#0 257413470#1 257413473#0 257413473#1 229248578#2 171770985#0 171770988 171771357#0 171771357#1 132970975#2 229248576#0 229248576#1 165257210 257413472 -165257213 165257217#0"/>
    </vehicle>
    <vehicle id="28" type="passenger" depart="56.00" departLane="best" departSpeed="max">
        <route edges="-165300986 -165300985#2 -165300985#1 -165300985#0 165300983#2 165300983#3 165300983#4 164930207#6 132976494#14 229248578#15 229248578#16 229248578#17 229248578#18 229248578#19 229248578#21 229248578#22 229248578#23 229248578#24 229248578#25 229248578#26 229248578#28 229248578#29 338517271#0 338517271#1 338517281#1 -338517295#0 225030378#11 225030378#11-AddedOffRampEdge 225030378#12 171196237#23 171196237#24 171196237#25"/>
    </vehicle>
    <vehicle id="29" type="passenger" depart="58.00" departLane="best" departSpeed="max">
        <route edges="-165296748#2 -165296746#0 132976495#6 132976495#7 132976495#8 132976495#10 132976495#10-AddedOffRampEdge 132976495#11 132976495#13 132976495#14-AddedOnRampEdge 132976495#14 132976495#14-AddedOffRampEdge 132976495#15 132970988#5 132970988#6 132970988#7 132970988#8-AddedOnRampEdge 132970988#8 132970988#8-AddedOffRampEdge 132970988#9 132970988#11 132970988#12 132970988#13 132970988#14 132970988#15 132970988#16-AddedOnRampEdge 132970988#16 665671743#5 665671751#0 665671751#0-AddedOffRampEdge 665671751#1 665671765 1136880675#2 225030240#4 1136880673#1 -1332821002 -1332820069#5 -1332820069#4 -1332820069#3 -1332820069#2 -1332820069#1 -1332820069#0 1108473991#4 -1108473993#1 -1108473993#0 1108473994#2 1108473994#3 1108473994#4"/>
    </vehicle>
    <vehicle id="30" type="passenger" depart="60.00" departLane="best" departSpeed="max">
        <route edges="884069762#1 884069762#2-AddedOnRampEdge 884069762#2 884069762#3 884069762#4 884069762#5 266653534#17 266653534#18 266653534#19 266653534#20 266653534#20-AddedOffRampEdge 266653534#21 266653533#0 266653533#1-AddedOnRampEdge 266653533#1 266653533#1-AddedOffRampEdge 266653533#2 266653533#4 266653533#5-AddedOnRampEdge 266653533#5 266653533#6 316009896#4 164929309#0 164929309#2 164929309#3 164929309#4 164929309#5 164929309#7 -164930342#4 165303758#8 165303756#2"/>
    </vehicle>
    <vehicle id="31" type="passenger" depart="62.00" departLane="best" departSpeed="max">
        <route edges="165025328#2 165025463#0 165025463#1 165025463#2 164926660#7 165027304 -165027290#2 -165027290#1 -165027290#0 -165025865#7 -165025865#6 -165025865#5 -165025865#4 -165025865#3 -165025865#2 -165025865#1 -165025865#0 229248578#37 229248578#38 168293175#0 168293175#1 168293175#2 168293175#5 -168577655#4 -168577655#3 -168577655#2 -168577655#1 -168577655#0 168446405#4 168572356#0 168443512#2 168443512#3 -168572355#3 -168572355#2 168572359"/>
    </vehicle>
    <vehicle id="32" type="passenger" depart="64.00" departLane="best" departSpeed="max">
        <route edges="229248576#9 132976509#3 132976509#4 132971052#0 132971052#1 322885749#0 322885749#1 322885747 129209464#4 129209464#5 129209464#6 132971049#0 132971049#1 132971049#2 132971049#4 132971049#4-AddedOffRampEdge 132971049#5 132970988#15 132970988#16-AddedOnRampEdge 132970988#16 665671743#5 665671751#0 665671751#0-AddedOffRampEdge 665671751#1 665671765 123243892#0 123243892#1 123243892#2-AddedOnRampEdge 123243892#2 123243892#4 123243892#4-AddedOffRampEdge 123243892#5 123243892#7 123243892#8-AddedOnRampEdge 123243892#8 123243892#10 123243892#10-AddedOffRampEdge 123243892#11 257413502#3 257413502#4 257413502#5 257413457 225030414#0 225030396#0 225030396#1 225030423#3 225030324#1 -225030310 225030262#1 -225030398 225030262#0"/>
    </vehicle>
    <vehicle id="33" type="passenger" depart="66.00" departLane="best" departSpeed="max">
        <route edges="-170232130#1 -170232130#0 170232128#1 170232128#2 171196237#9 171196237#10 171196237#11 171196237#13 171196237#14-AddedOnRampEdge 171196237#14 171196237#15 171196237#16 171196237#17 171196237#18 171196237#19 171196237#20 171196237#21 123243883#1 123243887#2-AddedOnRampEdge 123243887#2 123243887#3 123243887#4 123243887#5 123243887#7 123243887#8 123243887#9 123243887#10 123243887#11 123243887#12 123243887#12-AddedOffRampEdge 123243887#13 123243887#16 123243887#17 123243887#18 123243887#19 123243887#20 123243887#21-AddedOnRampEdge 123243887#21 123243887#22 123243887#24 123243887#25 1136880676-AddedOnRampEdge 1136880676 1136880675#0 1136880675#1 123243892#0 123243892#1 123243892#2-AddedOnRampEdge 123243892#2 123243892#4 123243892#4-AddedOffRampEdge 123243892#5 257413447#0 257413447#1 -225030421#6 -225030421#5 -225030421#4 -1332820049#1 1332820052#0 1332820052#1 1332820052#2 1332820047#4 1332820047#5 1332820056#0 1332820056#1 -1332820117#1 -1332820118 1332820114#2 -1332820056#2"/>
    </vehicle>
    <vehicle id="34" type="passenger" depart="68.00" departLane="best" departSpeed="max">
        <route edges="-313715050#1 313715051 -313715048#0 132976492#6 132976492#7 171196237#34 171196237#35 171196237#36 316009897#0 -171770973#6 -171770984 229248578#8 229248578#10 -171774367#0"/>
    </vehicle>
    <vehicle id="35" type="passenger" depart="70.00" departLane="best" departSpeed="max">
        <route edges="-170192654 -361926669#2 -361926669#1 -361926669#0 -170192932 164928138#10 164928138#11 164928138#12 164928138#13 164928138#15 164928138#16 164928138#18 170202820 614436956#1"/>
    </vehicle>
    <vehicle id="36" type="passenger" depart="72.00" departLane="best" departSpeed="max">
        <route edges="257413486 257413502#5 257413506#0 257413491 225030248#5-AddedOnRampEdge 225030248#5 225030248#7 225030248#9 225030248#11 225030248#11-AddedOffRampEdge 225030248#12 225030248#14 665671756#0 665671756#0-AddedOffRampEdge 665671748 665671752#2-AddedOnRampEdge 665671752#2 665671743#7 665671743#8 665671743#1 665671743#2 665671743#3 132970986#0 132970986#1 132970986#2-AddedOnRampEdge 132970986#2 132970986#3 129213890#0 129213890#1 171779548#0 171779548#1 171779550#0 171779550#1 171779544#1 -313715047"/>
    </vehicle>
    <vehicle id="37" type="passenger" depart="74.00" departLane="best" departSpeed="max">
        <route edges="165304764#4 171196237#35 171196237#36 316009897#0 -171770973#6 -171770984 229248578#8 229248578#10 229248578#11 229248578#12 229248578#13 229248578#15 229248578#16 229248578#17 229248578#18 229248578#19 229248578#21 229248578#22 229248578#23 229248578#24 229248578#25 123243887#0 123243887#1 123243887#2-AddedOnRampEdge 123243887#2 123243887#3 123243887#4 123243887#5 123243887#7 123243887#8 123243887#9 123243887#10 123243887#11 123243887#12"/>
    </vehicle>
    <vehicle id="38" type="passenger" depart="76.00" departLane="best" departSpeed="max">
        <route edges="318733659 594166253 -594166254#0 -261406961#1 -261406961#0 318733655#1 318733655#2 -170661484#4 -170661484#3 -170661484#2 -170661484#1 123243887#9 123243887#10 123243887#11 123243887#12 123243887#12-AddedOffRampEdge 123243887#13 123243887#16 123243887#17 123243887#18 123243887#19 123243887#20 123243887#21-AddedOnRampEdge 123243887#21 123243887#22 123243887#24 123243887#25 1136880676-AddedOnRampEdge 1136880676 1136880675#0 1136880675#1 123243892#0 123243892#1 123243892#2-AddedOnRampEdge 123243892#2 123243892#4 123243892#4-AddedOffRampEdge 123243892#5 257413447#0 257413447#1 -225030421#6 -225030421#5 -225030421#4 -225030421#3 -225030421#2 1108473995#0 1108473987#0 -1332820045#2 -1332820045#1 -1332820045#0 -1332820039#0 1332820038#1"/>
    </vehicle>
    <vehicle id="39" type="passenger" depart="78.00" departLane="best" departSpeed="max">
        <route edges="-171774367#5 -171774367#3 171774354#4 164929533#1 316009894#0 316009894#1 316009894#2 316009894#3 316009894#4 316009894#5 316009894#6 316009894#7 316009894#8 316009894#10 132976495#10 132976495#10-AddedOffRampEdge 132976495#11 132976495#13 132976495#14-AddedOnRampEdge 132976495#14 132976495#14-AddedOffRampEdge 132976495#15 884069762#0 884069762#1 884069762#2-AddedOnRampEdge 884069762#2 884069762#3 884069762#4 884069762#5 884069762#6 884069762#7-AddedOnRampEdge 884069762#7 884069762#7-AddedOffRampEdge 884069762#8 884069762#9-AddedOnRampEdge 884069762#9 884069762#9-AddedOffRampEdge 225030305 225030265#6 1136913753#0 1136913753#1 1136913753#2 168443510#1 171241931#0 -171241929#0"/>
    </vehicle>
    <vehicle id="40" type="passenger" depart="80.00" departLane="best" departSpeed="max">
        <route edges="165025865#0 165025865#1 165025865#2 -165026092 -165026223#1 165026260 -165026125#0 164926660#25 -165025640#3 -165025680#1 -165025680#0 164926629#9 164926629#10 164926629#11 171196237#7 171196237#8 171196237#9 171196237#10 171196237#11 171196237#13 171196237#14-AddedOnRampEdge 171196237#14 171196237#15 171196237#16 171196237#17 171196237#18 171196237#19 171196237#20 171196237#21 171196237#23 171196237#24 171196237#25 171196237#26 171196237#28 171196237#29-AddedOnRampEdge 171196237#29 171196237#30 171196237#31 171196237#32 132976494#16 171774357#0 171774357#1 171774344#0 171774351 171774366#0 171774366#1 171774346 171774361 -171774367#5 -171774356"/>
    </vehicle>
    <vehicle id="41" type="passenger" depart="82.00" departLane="best" departSpeed="max">
        <route edges="165253068#2 165253068#3 165253068#4 229247668#3 229247668#4 129210106#4 129210106#5 129210106#5-AddedOffRampEdge 129210106#6 129210106#7 129212165#1 129212165#2 129212165#3 129212165#4 129212165#5 132976495#0 132976495#1 132976495#2 132976495#3-AddedOnRampEdge 132976495#3 132976495#4 132976495#5 132976495#6 132976495#7 132976495#8 316009894#12 316009894#14 316009894#15 316009894#16"/>
    </vehicle>
    <vehicle id="42" type="passenger" depart="84.00" departLane="best" departSpeed="max">
        <route edges="1136913755 168293175#1 -170232123#1 -170232125#3 -170232125#2 -170232125#1 -170232125#0 171196237#10 171196237#11 171196237#13 171196237#14-AddedOnRampEdge 171196237#14 171196237#15 171196237#16 171196237#17 171196237#18 171196237#19 171196237#20 171196237#21 171196237#23 171196237#24 171196237#25 171196237#26 132970986#10 132970986#11-AddedOnRampEdge 132970986#11 132970986#12-AddedOnRampEdge 132970986#12 132970986#12-AddedOffRampEdge 132970986#13 266653533#0 266653533#1-AddedOnRampEdge 266653533#1 266653533#1-AddedOffRampEdge 164930078#0 164930078#1 132976492#19 132976492#20 132976492#21 -164928138#3 170212945#0 -170212942"/>
    </vehicle>
    <vehicle id="44" type="passenger" depart="88.00" departLane="best" departSpeed="max">
        <route edges="-164930587#6 -164930587#5 -164930587#4 -164930587#3 -164930587#2 -164930587#1 164929309#4 164929309#5 164929309#7 164929309#8 164929309#9 164929309#10 164929309#11 164929309#12 229248578#10 171774367#1 171774367#2 171774367#3 171774367#5 171774367#6 171774367#7 171774367#8 171774367#9 171774367#10 171774367#11 132976494#20 132976494#21 132971049#4 132971049#4-AddedOffRampEdge 132971049#5 132970988#15 132970988#16-AddedOnRampEdge 132970988#16 665671743#5 665671751#0 665671751#0-AddedOffRampEdge 665671751#1 665671765 123243892#0 123243892#1 123243892#2-AddedOnRampEdge 123243892#2 123243892#4 123243892#4-AddedOffRampEdge 123243892#5 257413447#0 257413447#1 -225030421#6 -225030421#5 -225030421#4 -1332820049#1 1332820052#0 1332820052#1 1332820052#2 1332820047#4 1332820047#5 1332820056#0 1332820056#1 -1332820117#1 -1332820117#0"/>
    </vehicle>
    <vehicle id="45" type="passenger" depart="90.00" departLane="best" departSpeed="max">