<?xml version="1.0" encoding="UTF-8"?>
<!-- SUMO Configuration for VeReMiVNDN Urban Scenario -->
<configuration xmlns:xsi="http://www.w3.org/2001/XMLSchema-instance" xsi:noNamespaceSchemaLocation="http://sumo.dlr.de/xsd/sumoConfiguration.xsd">

    <input>
        <net-file value="urban.net.xml"/>
        <route-files value="urban.rou.xml"/>
    </input>

    <time>
        <begin value="0"/>
        <end value="300"/>
        <step-length value="0.1"/>
    </time>

    <processing>
        <time-to-teleport value="-1"/>
        <collision.action value="warn"/>
    </processing>

    <report>
        <verbose value="false"/>
        <no-step-log value="true"/>
    </report>

    <gui_only>
        <start value="false"/>
        <quit-on-end value="true"/>
    </gui_only>

</configuration>
