<?xml version="1.0" encoding="UTF-8"?>
<!-- Simple Urban Network for VeReMiVNDN Testing -->
<net version="1.16" xmlns:xsi="http://www.w3.org/2001/XMLSchema-instance" xsi:noNamespaceSchemaLocation="http://sumo.dlr.de/xsd/net_file.xsd">

    <location netOffset="0.00,0.00" convBoundary="0.00,0.00,2000.00,2000.00" origBoundary="0.00,0.00,2000.00,2000.00" projParameter="!"/>

    <!-- Junctions (Intersections) -->
    <junction id="J0" type="priority" x="0.00" y="0.00" incLanes="" intLanes="" shape="-1.60,3.20 1.60,3.20 3.20,1.60 3.20,-1.60 1.60,-3.20 -1.60,-3.20 -3.20,-1.60 -3.20,1.60"/>
    <junction id="J1" type="priority" x="1000.00" y="0.00" incLanes="E0_0" intLanes=":J1_0_0" shape="998.40,3.20 1001.60,3.20 1003.20,1.60 1003.20,-1.60 1001.60,-3.20 998.40,-3.20 996.80,-1.60 996.80,3.20">
        <request index="0" response="0" foes="0" cont="0"/>
    </junction>
    <junction id="J2" type="priority" x="2000.00" y="0.00" incLanes="E1_0" intLanes="" shape="1998.40,3.20 2001.60,3.20 2003.20,1.60 2003.20,-1.60 2001.60,-3.20 1998.40,-3.20 1996.80,-1.60 1996.80,3.20"/>
    <junction id="J3" type="priority" x="0.00" y="1000.00" incLanes="E2_0" intLanes="" shape="-1.60,1003.20 1.60,1003.20 3.20,1001.60 3.20,998.40 1.60,996.80 -1.60,996.80 -3.20,998.40 -3.20,1001.60"/>
    <junction id="J4" type="priority" x="0.00" y="2000.00" incLanes="E3_0" intLanes="" shape="-1.60,2003.20 1.60,2003.20 3.20,2001.60 3.20,1998.40 1.60,1996.80 -1.60,1996.80 -3.20,1998.40 -3.20,2001.60"/>
    <junction id="J5" type="priority" x="1000.00" y="1000.00" incLanes="E4_0" intLanes=":J5_0_0" shape="998.40,1003.20 1001.60,1003.20 1003.20,1001.60 1003.20,998.40 1001.60,996.80 998.40,996.80 996.80,998.40 996.80,1003.20">
        <request index="0" response="0" foes="0" cont="0"/>
    </junction>
    <junction id="J6" type="priority" x="1000.00" y="2000.00" incLanes="E5_0" intLanes="" shape="998.40,2003.20 1001.60,2003.20 1003.20,2001.60 1003.20,1998.40 1001.60,1996.80 998.40,1996.80 996.80,1998.40 996.80,2003.20"/>

    <!-- Edges (Roads) -->
    <edge id="E0" from="J0" to="J1" priority="1">
        <lane id="E0_0" index="0" speed="13.89" length="1000.00" shape="0.00,-1.60 1000.00,-1.60"/>
    </edge>

    <edge id="E1" from="J1" to="J2" priority="1">
        <lane id="E1_0" index="0" speed="13.89" length="1000.00" shape="1000.00,-1.60 2000.00,-1.60"/>
    </edge>

    <edge id="E2" from="J0" to="J3" priority="1">
        <lane id="E2_0" index="0" speed="13.89" length="1000.00" shape="1.60,0.00 1.60,1000.00"/>
    </edge>

    <edge id="E3" from="J3" to="J4" priority="1">
        <lane id="E3_0" index="0" speed="13.89" length="1000.00" shape="1.60,1000.00 1.60,2000.00"/>
    </edge>

    <edge id="E4" from="J1" to="J5" priority="1">
        <lane id="E4_0" index="0" speed="13.89" length="1000.00" shape="1001.60,0.00 1001.60,1000.00"/>
    </edge>

    <edge id="E5" from="J5" to="J6" priority="1">
        <lane id="E5_0" index="0" speed="13.89" length="1000.00" shape="1001.60,1000.00 1001.60,2000.00"/>
    </edge>

    <!-- Internal lanes for junctions -->
    <junction id=":J1_0" type="internal" x="1000.00" y="0.00" incLanes="E0_0" intLanes="" shape="1000.00,0.00 1000.00,0.00"/>
    <junction id=":J5_0" type="internal" x="1000.00" y="1000.00" incLanes="E4_0" intLanes="" shape="1000.00,1000.00 1000.00,1000.00"/>

    <!-- Connections -->
    <connection from="E0" to="E1" fromLane="0" toLane="0" via=":J1_0_0" dir="s" state="M"/>
    <connection from="E4" to="E5" fromLane="0" toLane="0" via=":J5_0_0" dir="s" state="M"/>

    <connection from=":J1_0" to="E1" fromLane="0" toLane="0" dir="s" state="M"/>
    <connection from=":J5_0" to="E5" fromLane="0" toLane="0" dir="s" state="M"/>

</net>
